data_image0
_chemical_formula_structural       NbTe2
_chemical_formula_sum              "Nb1 Te2"
_cell_length_a       3.6526132210410114
_cell_length_b       3.652613221041011
_cell_length_c       18.709333339869126
_cell_angle_alpha    90.0
_cell_angle_beta     90.0
_cell_angle_gamma    120.00000000000001

_space_group_name_H-M_alt    "P 1"
_space_group_IT_number       1

loop_
  _space_group_symop_operation_xyz
  'x, y, z'

loop_
  _atom_site_type_symbol
  _atom_site_label
  _atom_site_symmetry_multiplicity
  _atom_site_fract_x
  _atom_site_fract_y
  _atom_site_fract_z
  _atom_site_occupancy
  Nb  Nb1       1.0  0.0  0.0  0.5000000000034976  1.0000
  Te  Te1       1.0  0.6666666660172805  0.3333333323195655  0.5991305588699513  1.0000
  Te  Te2       1.0  0.33333333390021547  0.6666666678004308  0.4008694411370439  1.0000
