data_image0
_chemical_formula_structural       CrO2
_chemical_formula_sum              "Cr1 O2"
_cell_length_a       2.9100505493213698
_cell_length_b       2.9100505493213698
_cell_length_c       17.150952667403118
_cell_angle_alpha    90.0
_cell_angle_beta     90.0
_cell_angle_gamma    120.00000000000001

_space_group_name_H-M_alt    "P 1"
_space_group_IT_number       1

loop_
  _space_group_symop_operation_xyz
  'x, y, z'

loop_
  _atom_site_type_symbol
  _atom_site_label
  _atom_site_symmetry_multiplicity
  _atom_site_fract_x
  _atom_site_fract_y
  _atom_site_fract_z
  _atom_site_occupancy
  Cr  Cr1       1.0  4.439785396893398e-20  0.0  0.49999999920111965  1.0000
  O   O1        1.0  0.6666666642708835  0.33333333174493124  0.5559504952819474  1.0000
  O   O2        1.0  0.3333333337289183  0.6666666674578366  0.44404950428640794  1.0000
