data_image0
_chemical_formula_structural       WTe2
_chemical_formula_sum              "W1 Te2"
_cell_length_a       3.55007622207136
_cell_length_b       3.55007622207136
_cell_length_c       18.62392442646693
_cell_angle_alpha    90.0
_cell_angle_beta     90.0
_cell_angle_gamma    120.00000000000001

_space_group_name_H-M_alt    "P 1"
_space_group_IT_number       1

loop_
  _space_group_symop_operation_xyz
  'x, y, z'

loop_
  _atom_site_type_symbol
  _atom_site_label
  _atom_site_symmetry_multiplicity
  _atom_site_fract_x
  _atom_site_fract_y
  _atom_site_fract_z
  _atom_site_occupancy
  W   W1        1.0  0.0  0.0  0.49999999982638116  1.0000
  Te  Te1       1.0  0.666666666175174  0.33333333293381723  0.5972921804918575  1.0000
  Te  Te2       1.0  0.666666666175174  0.33333333293381723  0.4027078196978484  1.0000
