data_image0
_chemical_formula_structural       PtTe2
_chemical_formula_sum              "Pt1 Te2"
_cell_length_a       4.015820650234968
_cell_length_b       4.015820650234968
_cell_length_c       17.769490111599055
_cell_angle_alpha    90.0
_cell_angle_beta     90.0
_cell_angle_gamma    120.00000000000001

_space_group_name_H-M_alt    "P 1"
_space_group_IT_number       1

loop_
  _space_group_symop_operation_xyz
  'x, y, z'

loop_
  _atom_site_type_symbol
  _atom_site_label
  _atom_site_symmetry_multiplicity
  _atom_site_fract_x
  _atom_site_fract_y
  _atom_site_fract_z
  _atom_site_occupancy
  Pt  Pt1       1.0  0.0  0.0  0.5000000002363868  1.0000
  Te  Te1       1.0  0.6666666683547379  0.33333333427783535  0.5780671941337792  1.0000
  Te  Te2       1.0  0.333333332840146  0.666666665680292  0.4219328063389944  1.0000
