data_image0
_chemical_formula_structural       TiSSe
_chemical_formula_sum              "Ti1 S1 Se1"
_cell_length_a       3.4198048193847184
_cell_length_b       3.419804819384719
_cell_length_c       18.232485982860293
_cell_angle_alpha    90.0
_cell_angle_beta     90.0
_cell_angle_gamma    120.00000000000001

_space_group_name_H-M_alt    "P 1"
_space_group_IT_number       1

loop_
  _space_group_symop_operation_xyz
  'x, y, z'

loop_
  _atom_site_type_symbol
  _atom_site_label
  _atom_site_symmetry_multiplicity
  _atom_site_fract_x
  _atom_site_fract_y
  _atom_site_fract_z
  _atom_site_occupancy
  Ti  Ti1       1.0  1.0102128573050436e-19  2.6735936902765445e-38  0.5068168827161964  1.0000
  S   S1        1.0  0.6666666673434842  0.333333334507051  0.5846179001601964  1.0000
  Se  Se1       1.0  0.6666666673434842  0.333333334507051  0.4133839519791914  1.0000
