data_image0
_chemical_formula_structural       ReSe2
_chemical_formula_sum              "Re1 Se2"
_cell_length_a       3.456300024549175
_cell_length_b       3.4563000245491744
_cell_length_c       18.095452672157823
_cell_angle_alpha    90.0
_cell_angle_beta     90.0
_cell_angle_gamma    120.00000000000001

_space_group_name_H-M_alt    "P 1"
_space_group_IT_number       1

loop_
  _space_group_symop_operation_xyz
  'x, y, z'

loop_
  _atom_site_type_symbol
  _atom_site_label
  _atom_site_symmetry_multiplicity
  _atom_site_fract_x
  _atom_site_fract_y
  _atom_site_fract_z
  _atom_site_occupancy
  Re  Re1       1.0  5.091771828752704e-21  0.0  0.4999999980061891  1.0000
  Se  Se1       1.0  0.6666666652089689  0.3333333317341357  0.5852896029672547  1.0000
  Se  Se2       1.0  0.6666666652089689  0.3333333317341357  0.4147103913872484  1.0000
