data_image0
_chemical_formula_structural       TiS2
_chemical_formula_sum              "Ti1 S2"
_cell_length_a       3.414379821522676
_cell_length_b       3.414379821522676
_cell_length_c       17.84743010048207
_cell_angle_alpha    90.0
_cell_angle_beta     90.0
_cell_angle_gamma    120.00000000000001

_space_group_name_H-M_alt    "P 1"
_space_group_IT_number       1

loop_
  _space_group_symop_operation_xyz
  'x, y, z'

loop_
  _atom_site_type_symbol
  _atom_site_label
  _atom_site_symmetry_multiplicity
  _atom_site_fract_x
  _atom_site_fract_y
  _atom_site_fract_z
  _atom_site_occupancy
  Ti  Ti1       1.0  0.0  0.0  0.4999999999864947  1.0000
  S   S1        1.0  0.6666666656766993  0.33333333179935826  0.5797189310589055  1.0000
  S   S2        1.0  0.33333333349029565  0.6666666669805913  0.4202810689140839  1.0000
