data_image0
_chemical_formula_structural       VSeTe
_chemical_formula_sum              "V1 Se1 Te1"
_cell_length_a       3.4727501641104386
_cell_length_b       3.472750164110439
_cell_length_c       18.232485982860293
_cell_angle_alpha    90.0
_cell_angle_beta     90.0
_cell_angle_gamma    120.00000000000001

_space_group_name_H-M_alt    "P 1"
_space_group_IT_number       1

loop_
  _space_group_symop_operation_xyz
  'x, y, z'

loop_
  _atom_site_type_symbol
  _atom_site_label
  _atom_site_symmetry_multiplicity
  _atom_site_fract_x
  _atom_site_fract_y
  _atom_site_fract_z
  _atom_site_occupancy
  V   V1        1.0  1.2478735795517496e-18  3.7311425036392684e-37  0.507804230246145  1.0000
  Se  Se1       1.0  0.6666666659021614  0.33333333298794915  0.5901557127270025  1.0000
  Te  Te1       1.0  0.6666666659021614  0.33333333298794915  0.4068582944187332  1.0000
