data_image0
_chemical_formula_structural       ZrSeTe
_chemical_formula_sum              "Zr1 Se1 Te1"
_cell_length_a       3.8838238793318607
_cell_length_b       3.883823879331863
_cell_length_c       19.5
_cell_angle_alpha    90.0
_cell_angle_beta     90.0
_cell_angle_gamma    119.99999999999999

_space_group_name_H-M_alt    "P 1"
_space_group_IT_number       1

loop_
  _space_group_symop_operation_xyz
  'x, y, z'

loop_
  _atom_site_type_symbol
  _atom_site_label
  _atom_site_symmetry_multiplicity
  _atom_site_fract_x
  _atom_site_fract_y
  _atom_site_fract_z
  _atom_site_occupancy
  Zr  Zr1       1.0  3.284726977623036e-18  1.4926478454769024e-36  0.5069040169230768  1.0000
  Se  Se1       1.0  0.6666666665878722  0.3333333330037132  0.5828052251282051  1.0000
  Te  Te1       1.0  0.3333333330037132  0.6666666660074264  0.4102726994871795  1.0000
