data_image0
_chemical_formula_structural       CoO2
_chemical_formula_sum              "Co1 O2"
_cell_length_a       2.823220730643962
_cell_length_b       2.823220730643962
_cell_length_c       16.847780224959518
_cell_angle_alpha    90.0
_cell_angle_beta     90.0
_cell_angle_gamma    120.00000000000001

_space_group_name_H-M_alt    "P 1"
_space_group_IT_number       1

loop_
  _space_group_symop_operation_xyz
  'x, y, z'

loop_
  _atom_site_type_symbol
  _atom_site_label
  _atom_site_symmetry_multiplicity
  _atom_site_fract_x
  _atom_site_fract_y
  _atom_site_fract_z
  _atom_site_occupancy
  Co  Co1       1.0  1.8307162669679404e-18  0.0  0.4999999980721639  1.0000
  O   O1        1.0  0.6666666674218986  0.33333333152983796  0.5558022775087867  1.0000
  O   O2        1.0  0.33333333357484374  0.6666666671496875  0.44419772100974103  1.0000
