data_image0
_chemical_formula_structural       NbSTe
_chemical_formula_sum              "Nb1 S1 Te1"
_cell_length_a       3.5279991799896027
_cell_length_b       3.5279991799896036
_cell_length_c       19.5
_cell_angle_alpha    90.0
_cell_angle_beta     90.0
_cell_angle_gamma    119.99999999999999

_space_group_name_H-M_alt    "P 1"
_space_group_IT_number       1

loop_
  _space_group_symop_operation_xyz
  'x, y, z'

loop_
  _atom_site_type_symbol
  _atom_site_label
  _atom_site_symmetry_multiplicity
  _atom_site_fract_x
  _atom_site_fract_y
  _atom_site_fract_z
  _atom_site_occupancy
  Nb  Nb1       1.0  8.908481088725622e-19  6.143748604267042e-37  0.5095320717948718  1.0000
  S   S1        1.0  0.6666666669735258  0.33333333394410447  0.5814210358974359  1.0000
  Te  Te1       1.0  0.33333333394410447  0.6666666678882089  0.4092747441025641  1.0000
