data_image0
_chemical_formula_structural       ReSe2
_chemical_formula_sum              "Re1 Se2"
_cell_length_a       3.172142223223632
_cell_length_b       3.1721422232236316
_cell_length_c       18.540077366668882
_cell_angle_alpha    90.0
_cell_angle_beta     90.0
_cell_angle_gamma    120.00000000000001

_space_group_name_H-M_alt    "P 1"
_space_group_IT_number       1

loop_
  _space_group_symop_operation_xyz
  'x, y, z'

loop_
  _atom_site_type_symbol
  _atom_site_label
  _atom_site_symmetry_multiplicity
  _atom_site_fract_x
  _atom_site_fract_y
  _atom_site_fract_z
  _atom_site_occupancy
  Re  Re1       1.0  0.0  7.145082978037139e-41  0.4999999998201496  1.0000
  Se  Se1       1.0  0.6666666655683092  0.33333333215285027  0.5961044299560921  1.0000
  Se  Se2       1.0  0.33333333397291454  0.6666666679458291  0.403895570223579  1.0000
