data_image0
_chemical_formula_structural       PdS2
_chemical_formula_sum              "Pd1 S2"
_cell_length_a       3.5533946966061247
_cell_length_b       3.5533946966061247
_cell_length_c       17.49014366680906
_cell_angle_alpha    90.0
_cell_angle_beta     90.0
_cell_angle_gamma    120.00000000000001

_space_group_name_H-M_alt    "P 1"
_space_group_IT_number       1

loop_
  _space_group_symop_operation_xyz
  'x, y, z'

loop_
  _atom_site_type_symbol
  _atom_site_label
  _atom_site_symmetry_multiplicity
  _atom_site_fract_x
  _atom_site_fract_y
  _atom_site_fract_z
  _atom_site_occupancy
  Pd  Pd1       1.0  0.0  0.0  0.49999999980534576  1.0000
  S   S1        1.0  0.6666666667686894  0.3333333325822708  0.5711870559964716  1.0000
  S   S2        1.0  0.3333333325822708  0.6666666651645416  0.42881294418597055  1.0000
