data_image0
_chemical_formula_structural       NbSTe
_chemical_formula_sum              "Nb1 S1 Te1"
_cell_length_a       3.5257303045654904
_cell_length_b       3.525730304565491
_cell_length_c       18.232485982860293
_cell_angle_alpha    90.0
_cell_angle_beta     90.0
_cell_angle_gamma    120.00000000000001

_space_group_name_H-M_alt    "P 1"
_space_group_IT_number       1

loop_
  _space_group_symop_operation_xyz
  'x, y, z'

loop_
  _atom_site_type_symbol
  _atom_site_label
  _atom_site_symmetry_multiplicity
  _atom_site_fract_x
  _atom_site_fract_y
  _atom_site_fract_z
  _atom_site_occupancy
  Nb  Nb1       1.0  0.0  0.0  0.5118695146001095  1.0000
  S   S1        1.0  0.6666666659839323  0.33333333326277076  0.5885933964292264  1.0000
  Te  Te1       1.0  0.6666666659839323  0.33333333326277076  0.4043446821750116  1.0000
