data_image0
_chemical_formula_structural       VSeTe
_chemical_formula_sum              "V1 Se1 Te1"
_cell_length_a       3.4981673372287423
_cell_length_b       3.4981673372287423
_cell_length_c       19.5
_cell_angle_alpha    90.0
_cell_angle_beta     90.0
_cell_angle_gamma    120.00000000000001

_space_group_name_H-M_alt    "P 1"
_space_group_IT_number       1

loop_
  _space_group_symop_operation_xyz
  'x, y, z'

loop_
  _atom_site_type_symbol
  _atom_site_label
  _atom_site_symmetry_multiplicity
  _atom_site_fract_x
  _atom_site_fract_y
  _atom_site_fract_z
  _atom_site_occupancy
  V   V1        1.0  0.0  0.0  0.506403921025641  1.0000
  Se  Se1       1.0  0.6666666675728048  0.3333333343534069  0.5810140953846153  1.0000
  Te  Te1       1.0  0.33333333270297044  0.6666666654059409  0.4125832615384615  1.0000
