data_image0
_chemical_formula_structural       VSSe
_chemical_formula_sum              "V1 S1 Se1"
_cell_length_a       3.278751240163118
_cell_length_b       3.2787512401631234
_cell_length_c       19.5
_cell_angle_alpha    90.0
_cell_angle_beta     90.0
_cell_angle_gamma    119.99999999999994

_space_group_name_H-M_alt    "P 1"
_space_group_IT_number       1

loop_
  _space_group_symop_operation_xyz
  'x, y, z'

loop_
  _atom_site_type_symbol
  _atom_site_label
  _atom_site_symmetry_multiplicity
  _atom_site_fract_x
  _atom_site_fract_y
  _atom_site_fract_z
  _atom_site_occupancy
  V   V1        1.0  0.0  6.027061818163422e-38  0.5041719  1.0000
  S   S1        1.0  0.6666666674241527  0.3333333348980555  0.5758681666666667  1.0000
  Se  Se1       1.0  0.33333333313717084  0.6666666662743417  0.41995952717948715  1.0000
