data_image0
_chemical_formula_structural       HfSSe
_chemical_formula_sum              "Hf1 S1 Se1"
_cell_length_a       3.7114042608809474
_cell_length_b       3.7114042608809474
_cell_length_c       19.5
_cell_angle_alpha    90.0
_cell_angle_beta     90.0
_cell_angle_gamma    120.00000000000001

_space_group_name_H-M_alt    "P 1"
_space_group_IT_number       1

loop_
  _space_group_symop_operation_xyz
  'x, y, z'

loop_
  _atom_site_type_symbol
  _atom_site_label
  _atom_site_symmetry_multiplicity
  _atom_site_fract_x
  _atom_site_fract_y
  _atom_site_fract_z
  _atom_site_occupancy
  Hf  Hf1       1.0  0.0  1.443022133503849e-36  0.5039983138461538  1.0000
  S   S1        1.0  0.6666666658408715  0.3333333319191054  0.5754660430769231  1.0000
  Se  Se1       1.0  0.3333333334747167  0.6666666669494336  0.42053688  1.0000
