data_image0
_chemical_formula_structural       TaSSe
_chemical_formula_sum              "Ta1 S1 Se1"
_cell_length_a       3.4425213726674686
_cell_length_b       3.4425213726674686
_cell_length_c       19.5
_cell_angle_alpha    90.0
_cell_angle_beta     90.0
_cell_angle_gamma    120.00000000000001

_space_group_name_H-M_alt    "P 1"
_space_group_IT_number       1

loop_
  _space_group_symop_operation_xyz
  'x, y, z'

loop_
  _atom_site_type_symbol
  _atom_site_label
  _atom_site_symmetry_multiplicity
  _atom_site_fract_x
  _atom_site_fract_y
  _atom_site_fract_z
  _atom_site_occupancy
  Ta  Ta1       1.0  4.468498446716344e-18  4.973434494593424e-36  0.5035303435897436  1.0000
  S   S1        1.0  0.6666666676309835  0.33333333313197844  0.57981942  1.0000
  Se  Se1       1.0  0.33333333313197844  0.6666666662639569  0.4166492189743589  1.0000
