data_image0
_chemical_formula_structural       MoSe2
_chemical_formula_sum              "Mo1 Se2"
_cell_length_a       3.3197487878576672
_cell_length_b       3.3197487878576672
_cell_length_c       18.33805895352641
_cell_angle_alpha    90.0
_cell_angle_beta     90.0
_cell_angle_gamma    120.00000000000001

_space_group_name_H-M_alt    "P 1"
_space_group_IT_number       1

loop_
  _space_group_symop_operation_xyz
  'x, y, z'

loop_
  _atom_site_type_symbol
  _atom_site_label
  _atom_site_symmetry_multiplicity
  _atom_site_fract_x
  _atom_site_fract_y
  _atom_site_fract_z
  _atom_site_occupancy
  Mo  Mo1       1.0  0.0  0.0  0.500000000176507  1.0000
  Se  Se1       1.0  0.666666665803929  0.33333333397480447  0.5910145112667904  1.0000
  Se  Se2       1.0  0.666666665803929  0.33333333397480447  0.4089854885409096  1.0000
