data_image0
_chemical_formula_structural       WTe2
_chemical_formula_sum              "W1 Te2"
_cell_length_a       3.507069407271471
_cell_length_b       3.507069407271471
_cell_length_c       18.733935229540357
_cell_angle_alpha    90.0
_cell_angle_beta     90.0
_cell_angle_gamma    120.00000000000001

_space_group_name_H-M_alt    "P 1"
_space_group_IT_number       1

loop_
  _space_group_symop_operation_xyz
  'x, y, z'

loop_
  _atom_site_type_symbol
  _atom_site_label
  _atom_site_symmetry_multiplicity
  _atom_site_fract_x
  _atom_site_fract_y
  _atom_site_fract_z
  _atom_site_occupancy
  W   W1        1.0  5.63857751986164e-21  3.4332623668437663e-40  0.4999999992115816  1.0000
  Te  Te1       1.0  0.6666666651068935  0.3333333322871623  0.5991361554566124  1.0000
  Te  Te2       1.0  0.3333333339334093  0.6666666678668186  0.40086384243276013  1.0000
