data_image0
_chemical_formula_structural       PtTe2
_chemical_formula_sum              "Pt1 Te2"
_cell_length_a       3.8990329460636155
_cell_length_b       3.8990329460636155
_cell_length_c       18.13729677079924
_cell_angle_alpha    90.0
_cell_angle_beta     90.0
_cell_angle_gamma    120.00000000000001

_space_group_name_H-M_alt    "P 1"
_space_group_IT_number       1

loop_
  _space_group_symop_operation_xyz
  'x, y, z'

loop_
  _atom_site_type_symbol
  _atom_site_label
  _atom_site_symmetry_multiplicity
  _atom_site_fract_x
  _atom_site_fract_y
  _atom_site_fract_z
  _atom_site_occupancy
  Pt  Pt1       1.0  2.2163724677277352e-20  0.0  0.5000000008049921  1.0000
  Te  Te1       1.0  0.6666666658158605  0.3333333331868798  0.5849884701165671  1.0000
  Te  Te2       1.0  0.6666666658158605  0.3333333331868798  0.4150115298393668  1.0000
