data_image0
_chemical_formula_structural       WOS
_chemical_formula_sum              "W1 O1 S1"
_cell_length_a       3.0044476846794708
_cell_length_b       3.004803288338545
_cell_length_c       18.23248598286029
_cell_angle_alpha    90.0
_cell_angle_beta     90.0
_cell_angle_gamma    119.99608525376789

_space_group_name_H-M_alt    "P 1"
_space_group_IT_number       1

loop_
  _space_group_symop_operation_xyz
  'x, y, z'

loop_
  _atom_site_type_symbol
  _atom_site_label
  _atom_site_symmetry_multiplicity
  _atom_site_fract_x
  _atom_site_fract_y
  _atom_site_fract_z
  _atom_site_occupancy
  W   W1        1.0  0.08890718979509396  0.04443938955678702  0.5102172226401258  1.0000
  O   O1        1.0  0.7557128380468953  0.37786906355342703  0.5741735860837172  1.0000
  S   S1        1.0  0.7554622648922656  0.3777190100607872  0.4204572704570576  1.0000
