data_image0
_chemical_formula_structural       ReS2
_chemical_formula_sum              "Re1 S2"
_cell_length_a       3.0941979837659312
_cell_length_b       3.0941979837659312
_cell_length_c       18.270576368535416
_cell_angle_alpha    90.0
_cell_angle_beta     90.0
_cell_angle_gamma    120.00000000000001

_space_group_name_H-M_alt    "P 1"
_space_group_IT_number       1

loop_
  _space_group_symop_operation_xyz
  'x, y, z'

loop_
  _atom_site_type_symbol
  _atom_site_label
  _atom_site_symmetry_multiplicity
  _atom_site_fract_x
  _atom_site_fract_y
  _atom_site_fract_z
  _atom_site_occupancy
  Re  Re1       1.0  0.0  0.0  0.49999999976641635  1.0000
  S   S1        1.0  0.6666666661651055  0.3333333335473054  0.5895472098269355  1.0000
  S   S2        1.0  0.33333333354730543  0.6666666670946108  0.41045279025322523  1.0000
