data_image0
_chemical_formula_structural       WSeTe
_chemical_formula_sum              "W1 Se1 Te1"
_cell_length_a       3.432828139765317
_cell_length_b       3.4328281397653173
_cell_length_c       18.232485982860293
_cell_angle_alpha    90.0
_cell_angle_beta     90.0
_cell_angle_gamma    120.00000000000001

_space_group_name_H-M_alt    "P 1"
_space_group_IT_number       1

loop_
  _space_group_symop_operation_xyz
  'x, y, z'

loop_
  _atom_site_type_symbol
  _atom_site_label
  _atom_site_symmetry_multiplicity
  _atom_site_fract_x
  _atom_site_fract_y
  _atom_site_fract_z
  _atom_site_occupancy
  W   W1        1.0  2.6922342249103872e-18  3.2746438866154196e-36  0.5060650225467775  1.0000
  Se  Se1       1.0  0.6666666674934015  0.33333333491843875  0.5952109652080216  1.0000
  Te  Te1       1.0  0.6666666674934015  0.33333333491843875  0.4035436926657517  1.0000
