data_image0
_chemical_formula_structural       HfSSe
_chemical_formula_sum              "Hf1 S1 Se1"
_cell_length_a       3.6104148499984423
_cell_length_b       3.610414849998443
_cell_length_c       18.232485982860293
_cell_angle_alpha    90.0
_cell_angle_beta     90.0
_cell_angle_gamma    120.00000000000001

_space_group_name_H-M_alt    "P 1"
_space_group_IT_number       1

loop_
  _space_group_symop_operation_xyz
  'x, y, z'

loop_
  _atom_site_type_symbol
  _atom_site_label
  _atom_site_symmetry_multiplicity
  _atom_site_fract_x
  _atom_site_fract_y
  _atom_site_fract_z
  _atom_site_occupancy
  Hf  Hf1       1.0  1.9618438768398784e-18  0.0  0.5058542454753671  1.0000
  S   S1        1.0  0.6666666648396163  0.33333333244856594  0.5884846010624363  1.0000
  Se  Se1       1.0  0.6666666648396163  0.33333333244856594  0.4104864420044319  1.0000
