data_image0
_chemical_formula_structural       NbSSe
_chemical_formula_sum              "Nb1 S1 Se1"
_cell_length_a       3.4338668792987375
_cell_length_b       3.4338668792987392
_cell_length_c       19.5
_cell_angle_alpha    90.0
_cell_angle_beta     90.0
_cell_angle_gamma    119.99999999999999

_space_group_name_H-M_alt    "P 1"
_space_group_IT_number       1

loop_
  _space_group_symop_operation_xyz
  'x, y, z'

loop_
  _atom_site_type_symbol
  _atom_site_label
  _atom_site_symmetry_multiplicity
  _atom_site_fract_x
  _atom_site_fract_y
  _atom_site_fract_z
  _atom_site_occupancy
  Nb  Nb1       1.0  0.0  0.0  0.5036678671794871  1.0000
  S   S1        1.0  0.6666666661698434  0.33333333213546706  0.5801336805128205  1.0000
  Se  Se1       1.0  0.33333333381680846  0.6666666676336169  0.4161959415384615  1.0000
