data_image0
_chemical_formula_structural       HfSe2
_chemical_formula_sum              "Hf1 Se2"
_cell_length_a       3.7725999113460773
_cell_length_b       3.7725999113460773
_cell_length_c       18.143592238597066
_cell_angle_alpha    90.0
_cell_angle_beta     90.0
_cell_angle_gamma    120.00000000000001

_space_group_name_H-M_alt    "P 1"
_space_group_IT_number       1

loop_
  _space_group_symop_operation_xyz
  'x, y, z'

loop_
  _atom_site_type_symbol
  _atom_site_label
  _atom_site_symmetry_multiplicity
  _atom_site_fract_x
  _atom_site_fract_y
  _atom_site_fract_z
  _atom_site_occupancy
  Hf  Hf1       1.0  0.0  0.0  0.500000000038662  1.0000
  Se  Se1       1.0  0.6666666682451455  0.3333333341964027  0.5868565055903903  1.0000
  Se  Se2       1.0  0.33333333266602505  0.6666666653320501  0.4131434944869337  1.0000
