data_image0
_chemical_formula_structural       WS2
_chemical_formula_sum              "W1 S2"
_cell_length_a       3.2098763610009344
_cell_length_b       3.2098763610009344
_cell_length_c       18.156217925846313
_cell_angle_alpha    90.0
_cell_angle_beta     90.0
_cell_angle_gamma    120.00000000000001

_space_group_name_H-M_alt    "P 1"
_space_group_IT_number       1

loop_
  _space_group_symop_operation_xyz
  'x, y, z'

loop_
  _atom_site_type_symbol
  _atom_site_label
  _atom_site_symmetry_multiplicity
  _atom_site_fract_x
  _atom_site_fract_y
  _atom_site_fract_z
  _atom_site_occupancy
  W   W1        1.0  0.0  0.0  0.49999999983899973  1.0000
  S   S1        1.0  0.6666666664127869  0.3333333331374034  0.5868683232112795  1.0000
  S   S2        1.0  0.33333333313740343  0.6666666662748068  0.41313167646671994  1.0000
