data_image0
_chemical_formula_structural       PtO2
_chemical_formula_sum              "Pt1 O2"
_cell_length_a       3.14784516886499
_cell_length_b       3.14784516886499
_cell_length_c       16.88583555490694
_cell_angle_alpha    90.0
_cell_angle_beta     90.0
_cell_angle_gamma    120.00000000000001

_space_group_name_H-M_alt    "P 1"
_space_group_IT_number       1

loop_
  _space_group_symop_operation_xyz
  'x, y, z'

loop_
  _atom_site_type_symbol
  _atom_site_label
  _atom_site_symmetry_multiplicity
  _atom_site_fract_x
  _atom_site_fract_y
  _atom_site_fract_z
  _atom_site_occupancy
  Pt  Pt1       1.0  0.0  0.0  0.5000000001508086  1.0000
  O   O1        1.0  0.6666666656610155  0.3333333341382401  0.5558407530074828  1.0000
  O   O2        1.0  0.3333333341382402  0.6666666682764802  0.44415924670192214  1.0000
