data_image0
_chemical_formula_structural       WSTe
_chemical_formula_sum              "W1 S1 Te1"
_cell_length_a       3.3622930342415023
_cell_length_b       3.362293034241503
_cell_length_c       18.232485982860293
_cell_angle_alpha    90.0
_cell_angle_beta     90.0
_cell_angle_gamma    120.00000000000001

_space_group_name_H-M_alt    "P 1"
_space_group_IT_number       1

loop_
  _space_group_symop_operation_xyz
  'x, y, z'

loop_
  _atom_site_type_symbol
  _atom_site_label
  _atom_site_symmetry_multiplicity
  _atom_site_fract_x
  _atom_site_fract_y
  _atom_site_fract_z
  _atom_site_occupancy
  W   W1        1.0  1.3825391033006817e-18  3.802322849048625e-37  0.5093666502050459  1.0000
  S   S1        1.0  0.6666666668006267  0.3333333318885835  0.5907054446730149  1.0000
  Te  Te1       1.0  0.6666666668006267  0.3333333318885835  0.40474786965075743  1.0000
