data_image0
_chemical_formula_structural       HfTe2
_chemical_formula_sum              "Hf1 Te2"
_cell_length_a       3.909330474795616
_cell_length_b       3.909330474795616
_cell_length_c       18.691649558310004
_cell_angle_alpha    90.0
_cell_angle_beta     90.0
_cell_angle_gamma    120.00000000000001

_space_group_name_H-M_alt    "P 1"
_space_group_IT_number       1

loop_
  _space_group_symop_operation_xyz
  'x, y, z'

loop_
  _atom_site_type_symbol
  _atom_site_label
  _atom_site_symmetry_multiplicity
  _atom_site_fract_x
  _atom_site_fract_y
  _atom_site_fract_z
  _atom_site_occupancy
  Hf  Hf1       1.0  7.972359868102086e-21  0.0  0.500000003790195  1.0000
  Te  Te1       1.0  0.6666666671865039  0.3333333330417353  0.5989446198996796  1.0000
  Te  Te2       1.0  0.6666666671865039  0.3333333330417353  0.4010553908907001  1.0000
