data_image0
_chemical_formula_structural       MoS2
_chemical_formula_sum              "Mo1 S2"
_cell_length_a       3.188080277936215
_cell_length_b       3.1880802779362147
_cell_length_c       18.158273013181642
_cell_angle_alpha    90.0
_cell_angle_beta     90.0
_cell_angle_gamma    120.00000000000001

_space_group_name_H-M_alt    "P 1"
_space_group_IT_number       1

loop_
  _space_group_symop_operation_xyz
  'x, y, z'

loop_
  _atom_site_type_symbol
  _atom_site_label
  _atom_site_symmetry_multiplicity
  _atom_site_fract_x
  _atom_site_fract_y
  _atom_site_fract_z
  _atom_site_occupancy
  Mo  Mo1       1.0  3.179186784451884e-21  0.0  0.5000000001877479  1.0000
  S   S1        1.0  0.6666666663868698  0.3333333321263955  0.587414076892495  1.0000
  S   S2        1.0  0.3333333339373608  0.6666666678747216  0.4125859234830008  1.0000
