data_image0
_chemical_formula_structural       HfS2
_chemical_formula_sum              "Hf1 S2"
_cell_length_a       3.6521816311185886
_cell_length_b       3.652181631118588
_cell_length_c       17.891549592397414
_cell_angle_alpha    90.0
_cell_angle_beta     90.0
_cell_angle_gamma    120.00000000000001

_space_group_name_H-M_alt    "P 1"
_space_group_IT_number       1

loop_
  _space_group_symop_operation_xyz
  'x, y, z'

loop_
  _atom_site_type_symbol
  _atom_site_label
  _atom_site_symmetry_multiplicity
  _atom_site_fract_x
  _atom_site_fract_y
  _atom_site_fract_z
  _atom_site_occupancy
  Hf  Hf1       1.0  1.34983919908673e-20  1.929013201941414e-41  0.500000000212463  1.0000
  S   S1        1.0  0.6666666672616408  0.33333333209147176  0.5809378917305537  1.0000
  S   S2        1.0  0.33333333367230844  0.6666666673446169  0.41906210813544936  1.0000
