data_image0
_chemical_formula_structural       NiO2
_chemical_formula_sum              "Ni1 O2"
_cell_length_a       2.8396036667390394
_cell_length_b       2.8396036667390394
_cell_length_c       16.898821307482216
_cell_angle_alpha    90.0
_cell_angle_beta     90.0
_cell_angle_gamma    120.00000000000001

_space_group_name_H-M_alt    "P 1"
_space_group_IT_number       1

loop_
  _space_group_symop_operation_xyz
  'x, y, z'

loop_
  _atom_site_type_symbol
  _atom_site_label
  _atom_site_symmetry_multiplicity
  _atom_site_fract_x
  _atom_site_fract_y
  _atom_site_fract_z
  _atom_site_occupancy
  Ni  Ni1       1.0  0.0  0.0  0.49999999977861725  1.0000
  O   O1        1.0  0.6666666653393898  0.3333333330520122  0.556182063765508  1.0000
  O   O2        1.0  0.3333333330520122  0.6666666661040244  0.44381793638348366  1.0000
