data_image0
_chemical_formula_structural       TaSTe
_chemical_formula_sum              "Ta1 S1 Te1"
_cell_length_a       3.538822269272719
_cell_length_b       3.538822269272722
_cell_length_c       19.5
_cell_angle_alpha    90.0
_cell_angle_beta     90.0
_cell_angle_gamma    119.99999999999997

_space_group_name_H-M_alt    "P 1"
_space_group_IT_number       1

loop_
  _space_group_symop_operation_xyz
  'x, y, z'

loop_
  _atom_site_type_symbol
  _atom_site_label
  _atom_site_symmetry_multiplicity
  _atom_site_fract_x
  _atom_site_fract_y
  _atom_site_fract_z
  _atom_site_occupancy
  Ta  Ta1       1.0  4.811110413039143e-19  0.0  0.50911964  1.0000
  S   S1        1.0  0.666666664558827  0.33333333173793783  0.5810316984615385  1.0000
  Te  Te1       1.0  0.33333333336941356  0.6666666667388271  0.40984636256410256  1.0000
