data_image0
_chemical_formula_structural       MoSTe
_chemical_formula_sum              "Mo1 S1 Te1"
_cell_length_a       3.363003987928596
_cell_length_b       3.3630039879285962
_cell_length_c       18.232485982860293
_cell_angle_alpha    90.0
_cell_angle_beta     90.0
_cell_angle_gamma    120.00000000000001

_space_group_name_H-M_alt    "P 1"
_space_group_IT_number       1

loop_
  _space_group_symop_operation_xyz
  'x, y, z'

loop_
  _atom_site_type_symbol
  _atom_site_label
  _atom_site_symmetry_multiplicity
  _atom_site_fract_x
  _atom_site_fract_y
  _atom_site_fract_z
  _atom_site_occupancy
  Mo  Mo1       1.0  0.0  0.0  0.5093803636394197  1.0000
  S   S1        1.0  0.6666666656838942  0.3333333337253817  0.5902333307765285  1.0000
  Te  Te1       1.0  0.6666666656838942  0.3333333337253817  0.4052091419099494  1.0000
