data_image0
_chemical_formula_structural       WS2
_chemical_formula_sum              "W1 S2"
_cell_length_a       3.185945949661419
_cell_length_b       3.185945949661419
_cell_length_c       18.14559487597237
_cell_angle_alpha    90.0
_cell_angle_beta     90.0
_cell_angle_gamma    120.00000000000001

_space_group_name_H-M_alt    "P 1"
_space_group_IT_number       1

loop_
  _space_group_symop_operation_xyz
  'x, y, z'

loop_
  _atom_site_type_symbol
  _atom_site_label
  _atom_site_symmetry_multiplicity
  _atom_site_fract_x
  _atom_site_fract_y
  _atom_site_fract_z
  _atom_site_occupancy
  W   W1        1.0  0.0  0.0  0.5000000001109809  1.0000
  S   S1        1.0  0.6666666659060331  0.33333333484457817  0.5866765434125528  1.0000
  S   S2        1.0  0.6666666659060331  0.33333333484457817  0.413323456809409  1.0000
