data_image0
_chemical_formula_structural       HfSeTe
_chemical_formula_sum              "Hf1 Se1 Te1"
_cell_length_a       3.871791610081613
_cell_length_b       3.871791610081611
_cell_length_c       19.5
_cell_angle_alpha    90.0
_cell_angle_beta     90.0
_cell_angle_gamma    120.00000000000001

_space_group_name_H-M_alt    "P 1"
_space_group_IT_number       1

loop_
  _space_group_symop_operation_xyz
  'x, y, z'

loop_
  _atom_site_type_symbol
  _atom_site_label
  _atom_site_symmetry_multiplicity
  _atom_site_fract_x
  _atom_site_fract_y
  _atom_site_fract_z
  _atom_site_occupancy
  Hf  Hf1       1.0  6.669636524182307e-19  0.0  0.506421923076923  1.0000
  Se  Se1       1.0  0.6666666673266887  0.3333333320916724  0.5823448917948718  1.0000
  Te  Te1       1.0  0.33333333358284317  0.6666666671656863  0.41123354102564097  1.0000
