data_image0
_chemical_formula_structural       TiSeTe
_chemical_formula_sum              "Ti1 Se1 Te1"
_cell_length_a       3.6453581404058206
_cell_length_b       3.64535814040582
_cell_length_c       19.5
_cell_angle_alpha    90.0
_cell_angle_beta     90.0
_cell_angle_gamma    120.00000000000001

_space_group_name_H-M_alt    "P 1"
_space_group_IT_number       1

loop_
  _space_group_symop_operation_xyz
  'x, y, z'

loop_
  _atom_site_type_symbol
  _atom_site_label
  _atom_site_symmetry_multiplicity
  _atom_site_fract_x
  _atom_site_fract_y
  _atom_site_fract_z
  _atom_site_occupancy
  Ti  Ti1       1.0  1.101806187830963e-18  4.458488660327855e-37  0.5073707451282051  1.0000
  Se  Se1       1.0  0.6666666663214945  0.3333333327543144  0.5804257994871795  1.0000
  Te  Te1       1.0  0.33333333275431437  0.6666666655086289  0.41220532717948716  1.0000
