data_image0
_chemical_formula_structural       NbTe2
_chemical_formula_sum              "Nb1 Te2"
_cell_length_a       3.6820664366167732
_cell_length_b       3.6820664366167732
_cell_length_c       18.67782769496773
_cell_angle_alpha    90.0
_cell_angle_beta     90.0
_cell_angle_gamma    120.00000000000001

_space_group_name_H-M_alt    "P 1"
_space_group_IT_number       1

loop_
  _space_group_symop_operation_xyz
  'x, y, z'

loop_
  _atom_site_type_symbol
  _atom_site_label
  _atom_site_symmetry_multiplicity
  _atom_site_fract_x
  _atom_site_fract_y
  _atom_site_fract_z
  _atom_site_occupancy
  Nb  Nb1       1.0  2.0633498255724062e-20  1.2338043215355676e-41  0.5000000001347125  1.0000
  Te  Te1       1.0  0.6666666664710689  0.3333333320232987  0.5988064818165849  1.0000
  Te  Te2       1.0  0.6666666664710689  0.3333333320232987  0.40119351791744573  1.0000
