data_image0
_chemical_formula_structural       MoSSe
_chemical_formula_sum              "Mo1 S1 Se1"
_cell_length_a       3.250850214597298
_cell_length_b       3.2508502145972984
_cell_length_c       18.232485982860293
_cell_angle_alpha    90.0
_cell_angle_beta     90.0
_cell_angle_gamma    120.00000000000001

_space_group_name_H-M_alt    "P 1"
_space_group_IT_number       1

loop_
  _space_group_symop_operation_xyz
  'x, y, z'

loop_
  _atom_site_type_symbol
  _atom_site_label
  _atom_site_symmetry_multiplicity
  _atom_site_fract_x
  _atom_site_fract_y
  _atom_site_fract_z
  _atom_site_occupancy
  Mo  Mo1       1.0  0.0  0.0  0.5048195445564834  1.0000
  S   S1        1.0  0.6666666669210651  0.3333333321801953  0.5886463310647393  1.0000
  Se  Se1       1.0  0.6666666669210651  0.3333333321801953  0.4113536687783817  1.0000
