data_image0
_chemical_formula_structural       HfSeTe
_chemical_formula_sum              "Hf1 Se1 Te1"
_cell_length_a       3.7896713670287117
_cell_length_b       3.7896713670287125
_cell_length_c       18.232485982860293
_cell_angle_alpha    90.0
_cell_angle_beta     90.0
_cell_angle_gamma    120.00000000000001

_space_group_name_H-M_alt    "P 1"
_space_group_IT_number       1

loop_
  _space_group_symop_operation_xyz
  'x, y, z'

loop_
  _atom_site_type_symbol
  _atom_site_label
  _atom_site_symmetry_multiplicity
  _atom_site_fract_x
  _atom_site_fract_y
  _atom_site_fract_z
  _atom_site_occupancy
  Hf  Hf1       1.0  0.0  8.353293611889175e-36  0.5083760025217304  1.0000
  Se  Se1       1.0  0.6666666654426748  0.3333333327400516  0.5947496260352996  1.0000
  Te  Te1       1.0  0.6666666654426748  0.3333333327400516  0.401692850710808  1.0000
