data_image0
_chemical_formula_structural       VTe2
_chemical_formula_sum              "V1 Te2"
_cell_length_a       3.5983597145838613
_cell_length_b       3.598359714583861
_cell_length_c       18.502548499472915
_cell_angle_alpha    90.0
_cell_angle_beta     90.0
_cell_angle_gamma    120.00000000000001

_space_group_name_H-M_alt    "P 1"
_space_group_IT_number       1

loop_
  _space_group_symop_operation_xyz
  'x, y, z'

loop_
  _atom_site_type_symbol
  _atom_site_label
  _atom_site_symmetry_multiplicity
  _atom_site_fract_x
  _atom_site_fract_y
  _atom_site_fract_z
  _atom_site_occupancy
  V   V1        1.0  0.0  0.0  0.4999999973119131  1.0000
  Te  Te1       1.0  0.6666666666285547  0.3333333317519405  0.5947223238092563  1.0000
  Te  Te2       1.0  0.6666666666285547  0.3333333317519405  0.40527767838109524  1.0000
