data_image0
_chemical_formula_structural       MoS2
_chemical_formula_sum              "Mo1 S2"
_cell_length_a       3.1840664646845926
_cell_length_b       3.184066464684592
_cell_length_c       18.12711264635152
_cell_angle_alpha    90.0
_cell_angle_beta     90.0
_cell_angle_gamma    120.00000000000001

_space_group_name_H-M_alt    "P 1"
_space_group_IT_number       1

loop_
  _space_group_symop_operation_xyz
  'x, y, z'

loop_
  _atom_site_type_symbol
  _atom_site_label
  _atom_site_symmetry_multiplicity
  _atom_site_fract_x
  _atom_site_fract_y
  _atom_site_fract_z
  _atom_site_occupancy
  Mo  Mo1       1.0  0.0  0.0  0.49999999982480603  1.0000
  S   S1        1.0  0.666666666792029  0.33333333505531904  0.5862551227726243  1.0000
  S   S2        1.0  0.666666666792029  0.33333333505531904  0.41374487742864774  1.0000
