data_image0
_chemical_formula_structural       MoOS
_chemical_formula_sum              "Mo1 O1 S1"
_cell_length_a       2.9984439996723498
_cell_length_b       2.9991677141801123
_cell_length_c       18.23248598286029
_cell_angle_alpha    90.0
_cell_angle_beta     90.0
_cell_angle_gamma    119.99201801205288

_space_group_name_H-M_alt    "P 1"
_space_group_IT_number       1

loop_
  _space_group_symop_operation_xyz
  'x, y, z'

loop_
  _atom_site_type_symbol
  _atom_site_label
  _atom_site_symmetry_multiplicity
  _atom_site_fract_x
  _atom_site_fract_y
  _atom_site_fract_z
  _atom_site_occupancy
  Mo  Mo1       1.0  0.09798729761000625  0.04893577773728606  0.5104459791576913  1.0000
  O   O1        1.0  0.7647237558534289  0.3824323864032605  0.5733726909115654  1.0000
  S   S1        1.0  0.7644923723688458  0.3822158604844793  0.4210094431015047  1.0000
