data_image0
_chemical_formula_structural       TiSTe
_chemical_formula_sum              "Ti1 S1 Te1"
_cell_length_a       3.589785271809264
_cell_length_b       3.589785271809276
_cell_length_c       19.5
_cell_angle_alpha    90.0
_cell_angle_beta     90.0
_cell_angle_gamma    119.99999999999989

_space_group_name_H-M_alt    "P 1"
_space_group_IT_number       1

loop_
  _space_group_symop_operation_xyz
  'x, y, z'

loop_
  _atom_site_type_symbol
  _atom_site_label
  _atom_site_symmetry_multiplicity
  _atom_site_fract_x
  _atom_site_fract_y
  _atom_site_fract_z
  _atom_site_occupancy
  Ti  Ti1       1.0  0.0  0.0  0.5115738307692308  1.0000
  S   S1        1.0  0.6666666683694477  0.3333333344572166  0.5742590538461538  1.0000
  Te  Te1       1.0  0.3333333328489024  0.6666666656978048  0.4141724317948718  1.0000
