data_image0
_chemical_formula_structural       NbSeTe
_chemical_formula_sum              "Nb1 Se1 Te1"
_cell_length_a       3.578939952196672
_cell_length_b       3.5789399521966714
_cell_length_c       19.5
_cell_angle_alpha    90.0
_cell_angle_beta     90.0
_cell_angle_gamma    120.00000000000001

_space_group_name_H-M_alt    "P 1"
_space_group_IT_number       1

loop_
  _space_group_symop_operation_xyz
  'x, y, z'

loop_
  _atom_site_type_symbol
  _atom_site_label
  _atom_site_symmetry_multiplicity
  _atom_site_fract_x
  _atom_site_fract_y
  _atom_site_fract_z
  _atom_site_occupancy
  Nb  Nb1       1.0  0.0  0.0  0.5052352497435897  1.0000
  Se  Se1       1.0  0.6666666673685249  0.3333333325567036  0.5871780169230769  1.0000
  Te  Te1       1.0  0.33333333255670367  0.6666666651134072  0.40757019333333333  1.0000
