data_image0
_chemical_formula_structural       TiOS
_chemical_formula_sum              "Ti1 O1 S1"
_cell_length_a       3.1762422689782546
_cell_length_b       3.1762422689782484
_cell_length_c       19.5
_cell_angle_alpha    90.0
_cell_angle_beta     90.0
_cell_angle_gamma    120.00000000000007

_space_group_name_H-M_alt    "P 1"
_space_group_IT_number       1

loop_
  _space_group_symop_operation_xyz
  'x, y, z'

loop_
  _atom_site_type_symbol
  _atom_site_label
  _atom_site_symmetry_multiplicity
  _atom_site_fract_x
  _atom_site_fract_y
  _atom_site_fract_z
  _atom_site_occupancy
  Ti  Ti1       1.0  0.0  0.0  0.5135787748717948  1.0000
  O   O1        1.0  0.6666666644347989  0.33333333169628876  0.5544802805128205  1.0000
  S   S1        1.0  0.3333333335140035  0.6666666670280071  0.43193794410256414  1.0000
