data_image0
_chemical_formula_structural       TaSeTe
_chemical_formula_sum              "Ta1 Se1 Te1"
_cell_length_a       3.598101193132609
_cell_length_b       3.598101193132609
_cell_length_c       19.5
_cell_angle_alpha    90.0
_cell_angle_beta     90.0
_cell_angle_gamma    120.00000000000001

_space_group_name_H-M_alt    "P 1"
_space_group_IT_number       1

loop_
  _space_group_symop_operation_xyz
  'x, y, z'

loop_
  _atom_site_type_symbol
  _atom_site_label
  _atom_site_symmetry_multiplicity
  _atom_site_fract_x
  _atom_site_fract_y
  _atom_site_fract_z
  _atom_site_occupancy
  Ta  Ta1       1.0  1.3161439027886849e-18  0.0  0.5051263384615384  1.0000
  Se  Se1       1.0  0.6666666682285851  0.3333333345485548  0.5864566953846154  1.0000
  Te  Te1       1.0  0.3333333329439577  0.6666666658879155  0.40841516256410254  1.0000
